Networks/MV_SemiUrban/SemiUrban_Consumers3.txt
New Line.Consumer3_1 Bus1=3_49.1 Bus2=Consumer3_1.1 Length=0.21 units=km Linecode=Line_25
New Line.Consumer3_2 Bus1=3_64.2 Bus2=Consumer3_2.1 Length=0.21 units=km Linecode=Line_25
New Line.Consumer3_3 Bus1=3_79.3 Bus2=Consumer3_3.1 Length=0.21 units=km Linecode=Line_25
New Line.Consumer3_4 Bus1=3_94.1 Bus2=Consumer3_4.1 Length=0.21 units=km Linecode=Line_25
New Line.Consumer3_5 Bus1=3_109.2 Bus2=Consumer3_5.1 Length=0.21 units=km Linecode=Line_25
New Line.Consumer3_6 Bus1=3_124.3 Bus2=Consumer3_6.1 Length=0.21 units=km Linecode=Line_25
New Line.Consumer3_7 Bus1=3_139.1 Bus2=Consumer3_7.1 Length=0.21 units=km Linecode=Line_25
New Line.Consumer3_8 Bus1=3_154.2 Bus2=Consumer3_8.1 Length=0.21 units=km Linecode=Line_25
New Line.Consumer3_9 Bus1=3_169.3 Bus2=Consumer3_9.1 Length=0.21 units=km Linecode=Line_25
New Line.Consumer3_10 Bus1=3_184.1 Bus2=Consumer3_10.1 Length=0.21 units=km Linecode=Line_25
New Line.Consumer3_11 Bus1=3_199.2 Bus2=Consumer3_11.1 Length=0.21 units=km Linecode=Line_25
New Line.Consumer3_12 Bus1=3_215.3 Bus2=Consumer3_12.1 Length=0.21 units=km Linecode=Line_25


New Line.Consumer3_13 Bus1=3_330.1 Bus2=Consumer3_13.1 Length=0.21 units=km Linecode=Line_25
New Line.Consumer3_14 Bus1=3_334.2 Bus2=Consumer3_14.1 Length=0.21 units=km Linecode=Line_25
New Line.Consumer3_15 Bus1=3_338.3 Bus2=Consumer3_15.1 Length=0.21 units=km Linecode=Line_25
New Line.Consumer3_16 Bus1=3_342.1 Bus2=Consumer3_16.1 Length=0.21 units=km Linecode=Line_25
New Line.Consumer3_17 Bus1=3_346.2 Bus2=Consumer3_17.1 Length=0.21 units=km Linecode=Line_25
New Line.Consumer3_18 Bus1=3_350.3 Bus2=Consumer3_18.1 Length=0.21 units=km Linecode=Line_25
New Line.Consumer3_19 Bus1=3_354.1 Bus2=Consumer3_19.1 Length=0.21 units=km Linecode=Line_25
New Line.Consumer3_20 Bus1=3_358.2 Bus2=Consumer3_20.1 Length=0.21 units=km Linecode=Line_25
New Line.Consumer3_21 Bus1=3_362.3 Bus2=Consumer3_21.1 Length=0.21 units=km Linecode=Line_25
New Line.Consumer3_22 Bus1=3_366.1 Bus2=Consumer3_22.1 Length=0.21 units=km Linecode=Line_25
New Line.Consumer3_23 Bus1=3_370.2 Bus2=Consumer3_23.1 Length=0.21 units=km Linecode=Line_25
New Line.Consumer3_24 Bus1=3_374.3 Bus2=Consumer3_24.1 Length=0.21 units=km Linecode=Line_25
New Line.Consumer3_25 Bus1=3_378.1 Bus2=Consumer3_25.1 Length=0.21 units=km Linecode=Line_25
New Line.Consumer3_26 Bus1=3_382.2 Bus2=Consumer3_26.1 Length=0.21 units=km Linecode=Line_25
New Line.Consumer3_27 Bus1=3_386.3 Bus2=Consumer3_27.1 Length=0.21 units=km Linecode=Line_25
New Line.Consumer3_28 Bus1=3_390.1 Bus2=Consumer3_28.1 Length=0.21 units=km Linecode=Line_25
New Line.Consumer3_29 Bus1=3_394.2 Bus2=Consumer3_29.1 Length=0.21 units=km Linecode=Line_25
New Line.Consumer3_30 Bus1=3_398.3 Bus2=Consumer3_30.1 Length=0.21 units=km Linecode=Line_25
New Line.Consumer3_31 Bus1=3_402.1 Bus2=Consumer3_31.1 Length=0.21 units=km Linecode=Line_25
New Line.Consumer3_32 Bus1=3_406.2 Bus2=Consumer3_32.1 Length=0.21 units=km Linecode=Line_25
New Line.Consumer3_33 Bus1=3_410.3 Bus2=Consumer3_33.1 Length=0.21 units=km Linecode=Line_25
New Line.Consumer3_34 Bus1=3_414.1 Bus2=Consumer3_34.1 Length=0.21 units=km Linecode=Line_25
New Line.Consumer3_35 Bus1=3_418.2 Bus2=Consumer3_35.1 Length=0.21 units=km Linecode=Line_25
New Line.Consumer3_36 Bus1=3_422.3 Bus2=Consumer3_36.1 Length=0.21 units=km Linecode=Line_25
New Line.Consumer3_37 Bus1=3_426.1 Bus2=Consumer3_37.1 Length=0.21 units=km Linecode=Line_25
New Line.Consumer3_38 Bus1=3_430.2 Bus2=Consumer3_38.1 Length=0.21 units=km Linecode=Line_25
New Line.Consumer3_39 Bus1=3_434.3 Bus2=Consumer3_39.1 Length=0.21 units=km Linecode=Line_25 
New Line.Consumer3_40 Bus1=3_438.1 Bus2=Consumer3_40.1 Length=0.21 units=km Linecode=Line_25 
New Line.Consumer3_41 Bus1=3_442.2 Bus2=Consumer3_41.1 Length=0.21 units=km Linecode=Line_25 
New Line.Consumer3_42 Bus1=3_448.3 Bus2=Consumer3_42.1 Length=0.21 units=km Linecode=Line_25 
New Line.Consumer3_43 Bus1=3_452.1 Bus2=Consumer3_43.1 Length=0.21 units=km Linecode=Line_25 
New Line.Consumer3_44 Bus1=3_456.2 Bus2=Consumer3_44.1 Length=0.21 units=km Linecode=Line_25 
New Line.Consumer3_45 Bus1=3_460.3 Bus2=Consumer3_45.1 Length=0.21 units=km Linecode=Line_25 
New Line.Consumer3_46 Bus1=3_464.1 Bus2=Consumer3_46.1 Length=0.21 units=km Linecode=Line_25 
New Line.Consumer3_47 Bus1=3_468.2 Bus2=Consumer3_47.1 Length=0.21 units=km Linecode=Line_25 
New Line.Consumer3_48 Bus1=3_472.3 Bus2=Consumer3_48.1 Length=0.21 units=km Linecode=Line_25 
New Line.Consumer3_49 Bus1=3_476.1 Bus2=Consumer3_49.1 Length=0.21 units=km Linecode=Line_25 
New Line.Consumer3_50 Bus1=3_480.2 Bus2=Consumer3_50.1 Length=0.21 units=km Linecode=Line_25 
New Line.Consumer3_51 Bus1=3_484.3 Bus2=Consumer3_51.1 Length=0.21 units=km Linecode=Line_25 


New Line.Consumer3_52 Bus1=3_609.1 Bus2=Consumer3_52.1 Length=0.21 units=km Linecode=Line_25
New Line.Consumer3_53 Bus1=3_614.2 Bus2=Consumer3_53.1 Length=0.21 units=km Linecode=Line_25 
New Line.Consumer3_54 Bus1=3_619.3 Bus2=Consumer3_54.1 Length=0.21 units=km Linecode=Line_25
New Line.Consumer3_55 Bus1=3_624.1 Bus2=Consumer3_55.1 Length=0.21 units=km Linecode=Line_25 
New Line.Consumer3_56 Bus1=3_629.2 Bus2=Consumer3_56.1 Length=0.21 units=km Linecode=Line_25 
New Line.Consumer3_57 Bus1=3_634.3 Bus2=Consumer3_57.1 Length=0.21 units=km Linecode=Line_25 
New Line.Consumer3_58 Bus1=3_639.1 Bus2=Consumer3_58.1 Length=0.21 units=km Linecode=Line_25 
New Line.Consumer3_59 Bus1=3_644.2 Bus2=Consumer3_59.1 Length=0.21 units=km Linecode=Line_25 
New Line.Consumer3_60 Bus1=3_649.3 Bus2=Consumer3_60.1 Length=0.21 units=km Linecode=Line_25 
New Line.Consumer3_61 Bus1=3_654.1 Bus2=Consumer3_61.1 Length=0.21 units=km Linecode=Line_25 
New Line.Consumer3_62 Bus1=3_659.2 Bus2=Consumer3_62.1 Length=0.21 units=km Linecode=Line_25 
New Line.Consumer3_63 Bus1=3_664.3 Bus2=Consumer3_63.1 Length=0.21 units=km Linecode=Line_25 
New Line.Consumer3_64 Bus1=3_669.1 Bus2=Consumer3_64.1 Length=0.21 units=km Linecode=Line_25 
New Line.Consumer3_65 Bus1=3_674.2 Bus2=Consumer3_65.1 Length=0.21 units=km Linecode=Line_25 
New Line.Consumer3_66 Bus1=3_679.3 Bus2=Consumer3_66.1 Length=0.21 units=km Linecode=Line_25 
New Line.Consumer3_67 Bus1=3_684.1 Bus2=Consumer3_67.1 Length=0.21 units=km Linecode=Line_25 
New Line.Consumer3_68 Bus1=3_689.2 Bus2=Consumer3_68.1 Length=0.21 units=km Linecode=Line_25 
New Line.Consumer3_69 Bus1=3_694.3 Bus2=Consumer3_69.1 Length=0.21 units=km Linecode=Line_25 
New Line.Consumer3_70 Bus1=3_699.1 Bus2=Consumer3_70.1 Length=0.21 units=km Linecode=Line_25 
New Line.Consumer3_71 Bus1=3_704.2 Bus2=Consumer3_71.1 Length=0.21 units=km Linecode=Line_25 
New Line.Consumer3_72 Bus1=3_709.3 Bus2=Consumer3_72.1 Length=0.21 units=km Linecode=Line_25 
New Line.Consumer3_73 Bus1=3_714.1 Bus2=Consumer3_73.1 Length=0.21 units=km Linecode=Line_25 
New Line.Consumer3_74 Bus1=3_719.2 Bus2=Consumer3_74.1 Length=0.21 units=km Linecode=Line_25 
New Line.Consumer3_75 Bus1=3_724.3 Bus2=Consumer3_75.1 Length=0.21 units=km Linecode=Line_25 
New Line.Consumer3_76 Bus1=3_729.1 Bus2=Consumer3_76.1 Length=0.21 units=km Linecode=Line_25 
New Line.Consumer3_77 Bus1=3_734.2 Bus2=Consumer3_77.1 Length=0.21 units=km Linecode=Line_25 
New Line.Consumer3_78 Bus1=3_739.3 Bus2=Consumer3_78.1 Length=0.21 units=km Linecode=Line_25 
New Line.Consumer3_79 Bus1=3_744.1 Bus2=Consumer3_79.1 Length=0.21 units=km Linecode=Line_25 
New Line.Consumer3_80 Bus1=3_749.2 Bus2=Consumer3_80.1 Length=0.21 units=km Linecode=Line_25 
New Line.Consumer3_81 Bus1=3_754.3 Bus2=Consumer3_81.1 Length=0.21 units=km Linecode=Line_25 
New Line.Consumer3_82 Bus1=3_759.1 Bus2=Consumer3_82.1 Length=0.21 units=km Linecode=Line_25  
New Line.Consumer3_83 Bus1=3_764.2 Bus2=Consumer3_83.1 Length=0.21 units=km Linecode=Line_25 
New Line.Consumer3_84 Bus1=3_769.3 Bus2=Consumer3_84.1 Length=0.21 units=km Linecode=Line_25 

New Line.Consumer3_85 Bus1=3_797.2 Bus2=Consumer3_85.1 Length=0.21 units=km Linecode=Line_25 
New Line.Consumer3_86 Bus1=3_802.3 Bus2=Consumer3_86.1 Length=0.21 units=km Linecode=Line_25 
New Line.Consumer3_87 Bus1=3_807.1 Bus2=Consumer3_87.1 Length=0.21 units=km Linecode=Line_25 
New Line.Consumer3_88 Bus1=3_812.2 Bus2=Consumer3_88.1 Length=0.21 units=km Linecode=Line_25 
New Line.Consumer3_89 Bus1=3_817.3 Bus2=Consumer3_89.1 Length=0.21 units=km Linecode=Line_25 
New Line.Consumer3_90 Bus1=3_822.1 Bus2=Consumer3_90.1 Length=0.21 units=km Linecode=Line_25 
New Line.Consumer3_91 Bus1=3_827.2 Bus2=Consumer3_91.1 Length=0.21 units=km Linecode=Line_25 
New Line.Consumer3_92 Bus1=3_832.3 Bus2=Consumer3_92.1 Length=0.21 units=km Linecode=Line_25 
New Line.Consumer3_93 Bus1=3_837.1 Bus2=Consumer3_93.1 Length=0.21 units=km Linecode=Line_25 
New Line.Consumer3_94 Bus1=3_842.2 Bus2=Consumer3_94.1 Length=0.21 units=km Linecode=Line_25 
New Line.Consumer3_95 Bus1=3_847.3 Bus2=Consumer3_95.1 Length=0.21 units=km Linecode=Line_25 
New Line.Consumer3_96 Bus1=3_852.1 Bus2=Consumer3_96.1 Length=0.21 units=km Linecode=Line_25 
New Line.Consumer3_97 Bus1=3_857.2 Bus2=Consumer3_97.1 Length=0.21 units=km Linecode=Line_25 
New Line.Consumer3_98 Bus1=3_862.3 Bus2=Consumer3_98.1 Length=0.21 units=km Linecode=Line_25 
New Line.Consumer3_99 Bus1=3_867.1 Bus2=Consumer3_99.1 Length=0.21 units=km Linecode=Line_25 
New Line.Consumer3_100 Bus1=3_872.2 Bus2=Consumer3_100.1 Length=0.21 units=km Linecode=Line_25 
New Line.Consumer3_101 Bus1=3_877.3 Bus2=Consumer3_101.1 Length=0.21 units=km Linecode=Line_25 
New Line.Consumer3_102 Bus1=3_882.1 Bus2=Consumer3_102.1 Length=0.21 units=km Linecode=Line_25  
New Line.Consumer3_103 Bus1=3_887.2 Bus2=Consumer3_103.1 Length=0.21 units=km Linecode=Line_25 
New Line.Consumer3_104 Bus1=3_892.3 Bus2=Consumer3_104.1 Length=0.21 units=km Linecode=Line_25  
New Line.Consumer3_105 Bus1=3_897.2 Bus2=Consumer3_105.1 Length=0.21 units=km Linecode=Line_25 
New Line.Consumer3_106 Bus1=3_902.3 Bus2=Consumer3_106.1 Length=0.21 units=km Linecode=Line_25 
New Line.Consumer3_107 Bus1=3_907.1 Bus2=Consumer3_107.1 Length=0.21 units=km Linecode=Line_25 
New Line.Consumer3_108 Bus1=3_912.2 Bus2=Consumer3_108.1 Length=0.21 units=km Linecode=Line_25 
New Line.Consumer3_109 Bus1=3_917.3 Bus2=Consumer3_109.1 Length=0.21 units=km Linecode=Line_25 
New Line.Consumer3_110 Bus1=3_922.1 Bus2=Consumer3_110.1 Length=0.21 units=km Linecode=Line_25 
New Line.Consumer3_111 Bus1=3_927.2 Bus2=Consumer3_111.1 Length=0.21 units=km Linecode=Line_25 
New Line.Consumer3_112 Bus1=3_932.3 Bus2=Consumer3_112.1 Length=0.21 units=km Linecode=Line_25 
New Line.Consumer3_113 Bus1=3_937.1 Bus2=Consumer3_113.1 Length=0.21 units=km Linecode=Line_25 
New Line.Consumer3_114 Bus1=3_942.2 Bus2=Consumer3_114.1 Length=0.21 units=km Linecode=Line_25 
New Line.Consumer3_115 Bus1=3_947.3 Bus2=Consumer3_115.1 Length=0.21 units=km Linecode=Line_25 
New Line.Consumer3_116 Bus1=3_952.1 Bus2=Consumer3_116.1 Length=0.21 units=km Linecode=Line_25 
New Line.Consumer3_117 Bus1=3_957.2 Bus2=Consumer3_117.1 Length=0.21 units=km Linecode=Line_25

  
  
